examples/Custom_controls_example/DSSfiles/Green_dss/newloads_allocated.dss
New Load.4214689E-ABC-1_1 phases=3 bus=X_4214689E_T_07570_SLD_1.1.2.3 kV=0.48 xfkva=3.861 pf=0.666 !status=variable mode=4 CVRwatts=0.8 CVRvars=3 class=1 numcust=1 yearly=LoadProfile xfkVA=25
New Load.4214689E-ABC-1_2 phases=3 bus=X_4214689E_T_07570_SLD_2.1.2.3 kV=0.48 xfkva=3.861 pf=0.666 !status=variable mode=4 CVRwatts=0.8 CVRvars=3 class=1 numcust=1 yearly=LoadProfile xfkVA=25
New Load.4214689E-ABC-1_3 phases=3 bus=X_4214689E_T_07570_SLD_3.1.2.3 kV=0.48 xfkva=3.861 pf=0.666 !status=variable mode=4 CVRwatts=0.8 CVRvars=3 class=1 numcust=1 yearly=LoadProfile xfkVA=25
New Load.P5504308-C-1_1 phases=1 bus=X_P5504308_T_07570_SLD_1.3 kV=0.24 xfkva=4.439 pf=0.663 !status=variable mode=4 CVRwatts=0.8 CVRvars=3 class=1 numcust=1 yearly=LoadProfile xfkVA=25
New Load.P5504308-C-1_2 phases=1 bus=X_P5504308_T_07570_SLD_2.3 kV=0.24 xfkva=4.439 pf=0.663 !status=variable mode=4 CVRwatts=0.8 CVRvars=3 class=1 numcust=1 yearly=LoadProfile xfkVA=25
New Load.P5504308-C-1_3 phases=1 bus=X_P5504308_T_07570_SLD_3.3 kV=0.24 xfkva=4.439 pf=0.663 !status=variable mode=4 CVRwatts=0.8 CVRvars=3 class=1 numcust=1 yearly=LoadProfile xfkVA=25
New Load.4671820E-ABC-1_1 phases=3 bus=X_4671820E_T_07570_SLD_1.1.2.3 kV=0.48 xfkva=3.861 pf=0.666 !status=variable mode=4 CVRwatts=0.8 CVRvars=3 class=1 numcust=1 yearly=LoadProfile xfkVA=25
New Load.4671820E-ABC-1_2 phases=3 bus=X_4671820E_T_07570_SLD_2.1.2.3 kV=0.48 xfkva=3.861 pf=0.666 !status=variable mode=4 CVRwatts=0.8 CVRvars=3 class=1 numcust=1 yearly=LoadProfile xfkVA=25
New Load.4671820E-ABC-1_3 phases=3 bus=X_4671820E_T_07570_SLD_3.1.2.3 kV=0.48 xfkva=3.861 pf=0.666 !status=variable mode=4 CVRwatts=0.8 CVRvars=3 class=1 numcust=1 yearly=LoadProfile xfkVA=25
New Load.4067277E-ABC-1_1 phases=3 bus=X_4067277E_T_07570_SLD_1.1.2.3 kV=0.48 xfkva=34.745 pf=0.666 !status=variable mode=4 CVRwatts=0.8 CVRvars=3 class=1 numcust=1 yearly=LoadProfile xfkVA=75
New Load.4553233E-ABC-1_1 phases=3 bus=X_4553233E_T_07570_SLD_1.1.2.3 kV=0.48 xfkva=3.475 pf=0.666 !status=variable mode=4 CVRwatts=0.8 CVRvars=3 class=1 numcust=1 yearly=LoadProfile xfkVA=15
New Load.4553233E-ABC-1_2 phases=3 bus=X_4553233E_T_07570_SLD_2.1.2.3 kV=0.48 xfkva=3.475 pf=0.666 !status=variable mode=4 CVRwatts=0.8 CVRvars=3 class=1 numcust=1 yearly=LoadProfile xfkVA=15
New Load.4130912E-ABC-1_1 phases=3 bus=X_4130912E_T_07570_SLD_1.1.2.3 kV=0.48 xfkva=4.633 pf=0.666 !status=variable mode=4 CVRwatts=0.8 CVRvars=3 class=1 numcust=1 yearly=LoadProfile xfkVA=30
New Load.4130912E-ABC-1_2 phases=3 bus=X_4130912E_T_07570_SLD_2.1.2.3 kV=0.48 xfkva=4.633 pf=0.666 !status=variable mode=4 CVRwatts=0.8 CVRvars=3 class=1 numcust=1 yearly=LoadProfile xfkVA=30
New Load.4130912E-ABC-1_3 phases=3 bus=X_4130912E_T_07570_SLD_3.1.2.3 kV=0.48 xfkva=4.633 pf=0.666 !status=variable mode=4 CVRwatts=0.8 CVRvars=3 class=1 numcust=1 yearly=LoadProfile xfkVA=30
New Load.4362834E-ABC-1_1 phases=3 bus=X_4362834E_T_07570_SLD_1.1.2.3 kV=0.48 xfkva=34.745 pf=0.666 !status=variable mode=4 CVRwatts=0.8 CVRvars=3 class=1 numcust=1 yearly=LoadProfile xfkVA=75
New Load.4362828E-ABC-1_1 phases=3 bus=X_4362828E_T_07570_SLD_1.1.2.3 kV=0.48 xfkva=3.861 pf=0.666 !status=variable mode=4 CVRwatts=0.8 CVRvars=3 class=1 numcust=1 yearly=LoadProfile xfkVA=25
New Load.4362828E-ABC-1_2 phases=3 bus=X_4362828E_T_07570_SLD_2.1.2.3 kV=0.48 xfkva=3.861 pf=0.666 !status=variable mode=4 CVRwatts=0.8 CVRvars=3 class=1 numcust=1 yearly=LoadProfile xfkVA=25
New Load.4362828E-ABC-1_3 phases=3 bus=X_4362828E_T_07570_SLD_3.1.2.3 kV=0.48 xfkva=3.861 pf=0.666 !status=variable mode=4 CVRwatts=0.8 CVRvars=3 class=1 numcust=1 yearly=LoadProfile xfkVA=25
New Load.2331624E-ABC-1_1 phases=3 bus=X_2331624E_T_07570_SLD_1.1.2.3 kV=0.48 xfkva=34.745 pf=0.666 !status=variable mode=4 CVRwatts=0.8 CVRvars=3 class=1 numcust=1 yearly=LoadProfile xfkVA=75
New Load.2212593E-ABC-1_1 phases=3 bus=X_2212593E_T_07570_SLD_1.1.2.3 kV=0.48 xfkva=26.059 pf=0.666 !status=variable mode=4 CVRwatts=0.8 CVRvars=3 class=1 numcust=1 yearly=LoadProfile xfkVA=112
New Load.2212593E-ABC-1_2 phases=3 bus=X_2212593E_T_07570_SLD_2.1.2.3 kV=0.48 xfkva=26.059 pf=0.666 !status=variable mode=4 CVRwatts=0.8 CVRvars=3 class=1 numcust=1 yearly=LoadProfile xfkVA=112
New Load.1507174E-ABC-1_1 phases=3 bus=X_1507174E_T_07570_SLD_1.1.2.3 kV=0.48 xfkva=34.745 pf=0.666 !status=variable mode=4 CVRwatts=0.8 CVRvars=3 class=1 numcust=1 yearly=LoadProfile xfkVA=75
New Load.1475350E-ABC-1_1 phases=3 bus=X_1475350E_T_07570_SLD_1.1.2.3 kV=0.48 xfkva=3.861 pf=0.666 !status=variable mode=4 CVRwatts=0.8 CVRvars=3 class=1 numcust=1 yearly=LoadProfile xfkVA=25
New Load.1475350E-ABC-1_2 phases=3 bus=X_1475350E_T_07570_SLD_2.1.2.3 kV=0.48 xfkva=3.861 pf=0.666 !status=variable mode=4 CVRwatts=0.8 CVRvars=3 class=1 numcust=1 yearly=LoadProfile xfkVA=25
New Load.1475350E-ABC-1_3 phases=3 bus=X_1475350E_T_07570_SLD_3.1.2.3 kV=0.48 xfkva=3.861 pf=0.666 !status=variable mode=4 CVRwatts=0.8 CVRvars=3 class=1 numcust=1 yearly=LoadProfile xfkVA=25
New Load.4700177E-ABC-1_1 phases=3 bus=X_4700177E_T_07570_SLD_1.1.2.3 kV=0.48 xfkva=26.059 pf=0.666 !status=variable mode=4 CVRwatts=0.8 CVRvars=3 class=1 numcust=1 yearly=LoadProfile xfkVA=112
New Load.4700177E-ABC-1_2 phases=3 bus=X_4700177E_T_07570_SLD_2.1.2.3 kV=0.48 xfkva=26.059 pf=0.666 !status=variable mode=4 CVRwatts=0.8 CVRvars=3 class=1 numcust=1 yearly=LoadProfile xfkVA=112
New Load.4784743E-ABC-1_1 phases=3 bus=X_4784743E_T_07570_SLD_1.1.2.3 kV=0.48 xfkva=28.955 pf=0.666 !status=variable mode=4 CVRwatts=0.8 CVRvars=3 class=1 numcust=1 yearly=LoadProfile xfkVA=125
New Load.4784743E-ABC-1_2 phases=3 bus=X_4784743E_T_07570_SLD_2.1.2.3 kV=0.48 xfkva=28.955 pf=0.666 !status=variable mode=4 CVRwatts=0.8 CVRvars=3 class=1 numcust=1 yearly=LoadProfile xfkVA=125
New Load.2272786E-ABC-1_1 phases=3 bus=X_2272786E_T_07570_SLD_1.1.2.3 kV=0.48 xfkva=4.633 pf=0.666 !status=variable mode=4 CVRwatts=0.8 CVRvars=3 class=1 numcust=1 yearly=LoadProfile xfkVA=20
New Load.2272786E-ABC-1_2 phases=3 bus=X_2272786E_T_07570_SLD_2.1.2.3 kV=0.48 xfkva=4.633 pf=0.666 !status=variable mode=4 CVRwatts=0.8 CVRvars=3 class=1 numcust=1 yearly=LoadProfile xfkVA=20
New Load.4274192E-ABC-1_1 phases=3 bus=X_4274192E_T_07570_SLD_1.1.2.3 kV=0.48 xfkva=34.745 pf=0.666 !status=variable mode=4 CVRwatts=0.8 CVRvars=3 class=1 numcust=1 yearly=LoadProfile xfkVA=75
New Load.1763996E-ABC-1_1 phases=3 bus=X_1763996E_T_07570_SLD_1.1.2.3 kV=0.48 xfkva=4.633 pf=0.666 !status=variable mode=4 CVRwatts=0.8 CVRvars=3 class=1 numcust=1 yearly=LoadProfile xfkVA=20
New Load.1763996E-ABC-1_2 phases=3 bus=X_1763996E_T_07570_SLD_2.1.2.3 kV=0.48 xfkva=4.633 pf=0.666 !status=variable mode=4 CVRwatts=0.8 CVRvars=3 class=1 numcust=1 yearly=LoadProfile xfkVA=20
New Load.850250E_07570$850250E_T_07570-1-A-1_1 phases=1 bus=X_850250E_T_07570_SLD_1.1 kV=0.24 xfkva=3.557 pf=0.64 !status=variable mode=4 CVRwatts=0.8 CVRvars=3 class=1 numcust=1 yearly=LoadProfile xfkVA=15
New Load.850250E_07570$850250E_T_07570-1-A-1_2 phases=1 bus=X_850250E_T_07570_SLD_2.1 kV=0.24 xfkva=3.557 pf=0.64 !status=variable mode=4 CVRwatts=0.8 CVRvars=3 class=1 numcust=1 yearly=LoadProfile xfkVA=15
New Load.1763673E_07570$1763673E_T_0757-1-A-1_1 phases=1 bus=X_1763673E_T_07570_SLD_1.1 kV=0.24 xfkva=2.371 pf=0.64 !status=variable mode=4 CVRwatts=0.8 CVRvars=3 class=1 numcust=1 yearly=LoadProfile xfkVA=5
New Load.1763673E_07570$1763673E_T_0757-1-B-1_1 phases=1 bus=X_1763673E_T_07570_SLD_1.2 kV=0.24 xfkva=2.692 pf=0.744 !status=variable mode=4 CVRwatts=0.8 CVRvars=3 class=1 numcust=1 yearly=LoadProfile xfkVA=5
New Load.1763673E_07570$1763673E_T_0757-1-C-1_1 phases=1 bus=X_1763673E_T_07570_SLD_1.3 kV=0.24 xfkva=2.663 pf=0.663 !status=variable mode=4 CVRwatts=0.8 CVRvars=3 class=1 numcust=1 yearly=LoadProfile xfkVA=5
New Load.4705526E-ABC-1_1 phases=3 bus=X_4705526E_T_07570_SLD_1.1.2.3 kV=0.48 xfkva=4.343 pf=0.666 !status=variable mode=4 CVRwatts=0.8 CVRvars=3 class=1 numcust=1 yearly=LoadProfile xfkVA=38
New Load.4705526E-ABC-1_2 phases=3 bus=X_4705526E_T_07570_SLD_2.1.2.3 kV=0.48 xfkva=4.343 pf=0.666 !status=variable mode=4 CVRwatts=0.8 CVRvars=3 class=1 numcust=1 yearly=LoadProfile xfkVA=38
New Load.4705526E-ABC-1_3 phases=3 bus=X_4705526E_T_07570_SLD_3.1.2.3 kV=0.48 xfkva=4.343 pf=0.666 !status=variable mode=4 CVRwatts=0.8 CVRvars=3 class=1 numcust=1 yearly=LoadProfile xfkVA=38
New Load.4705526E-ABC-1_4 phases=3 bus=X_4705526E_T_07570_SLD_4.1.2.3 kV=0.48 xfkva=4.343 pf=0.666 !status=variable mode=4 CVRwatts=0.8 CVRvars=3 class=1 numcust=1 yearly=LoadProfile xfkVA=38
New Load.P5403124-A-1_1 phases=1 bus=X_P5403124_T_07570_SLD_1.1 kV=0.24 xfkva=3.952 pf=0.64 !status=variable mode=4 CVRwatts=0.8 CVRvars=3 class=1 numcust=1 yearly=LoadProfile xfkVA=25
New Load.P5403124-A-1_2 phases=1 bus=X_P5403124_T_07570_SLD_2.1 kV=0.24 xfkva=3.952 pf=0.64 !status=variable mode=4 CVRwatts=0.8 CVRvars=3 class=1 numcust=1 yearly=LoadProfile xfkVA=25
New Load.P5403124-A-1_3 phases=1 bus=X_P5403124_T_07570_SLD_3.1 kV=0.24 xfkva=3.952 pf=0.64 !status=variable mode=4 CVRwatts=0.8 CVRvars=3 class=1 numcust=1 yearly=LoadProfile xfkVA=25
New Load.P5601317-1_T_07570$P5601317_T_-1-A-1_1 phases=1 bus=X_P5601317_T_07570_SLD_1.1 kV=0.24 xfkva=4.742 pf=0.64 !status=variable mode=4 CVRwatts=0.8 CVRvars=3 class=1 numcust=1 yearly=LoadProfile xfkVA=50
New Load.P5601317-1_T_07570$P5601317_T_-1-A-1_2 phases=1 bus=X_P5601317_T_07570_SLD_2.1 kV=0.24 xfkva=4.742 pf=0.64 !status=variable mode=4 CVRwatts=0.8 CVRvars=3 class=1 numcust=1 yearly=LoadProfile xfkVA=50
New Load.P5601317-1_T_07570$P5601317_T_-1-A-1_3 phases=1 bus=X_P5601317_T_07570_SLD_3.1 kV=0.24 xfkva=4.742 pf=0.64 !status=variable mode=4 CVRwatts=0.8 CVRvars=3 class=1 numcust=1 yearly=LoadProfile xfkVA=50
New Load.P5601317-1_T_07570$P5601317_T_-1-A-1_4 phases=1 bus=X_P5601317_T_07570_SLD_4.1 kV=0.24 xfkva=4.742 pf=0.64 !status=variable mode=4 CVRwatts=0.8 CVRvars=3 class=1 numcust=1 yearly=LoadProfile xfkVA=50
New Load.P5601317-1_T_07570$P5601317_T_-1-A-1_5 phases=1 bus=X_P5601317_T_07570_SLD_5.1 kV=0.24 xfkva=4.742 pf=0.64 !status=variable mode=4 CVRwatts=0.8 CVRvars=3 class=1 numcust=1 yearly=LoadProfile xfkVA=50
New Load.P5601317-1_T_07570$P5601317_T_-1-B-1_1 phases=1 bus=X_P5601317_T_07570_SLD_1.2 kV=0.24 xfkva=5.384 pf=0.744 !status=variable mode=4 CVRwatts=0.8 CVRvars=3 class=1 numcust=1 yearly=LoadProfile xfkVA=50
New Load.P5601317-1_T_07570$P5601317_T_-1-B-1_2 phases=1 bus=X_P5601317_T_07570_SLD_2.2 kV=0.24 xfkva=5.384 pf=0.744 !status=variable mode=4 CVRwatts=0.8 CVRvars=3 class=1 numcust=1 yearly=LoadProfile xfkVA=50
New Load.P5601317-1_T_07570$P5601317_T_-1-B-1_3 phases=1 bus=X_P5601317_T_07570_SLD_3.2 kV=0.24 xfkva=5.384 pf=0.744 !status=variable mode=4 CVRwatts=0.8 CVRvars=3 class=1 numcust=1 yearly=LoadProfile xfkVA=50
New Load.P5601317-1_T_07570$P5601317_T_-1-B-1_4 phases=1 bus=X_P5601317_T_07570_SLD_4.2 kV=0.24 xfkva=5.384 pf=0.744 !status=variable mode=4 CVRwatts=0.8 CVRvars=3 class=1 numcust=1 yearly=LoadProfile xfkVA=50
New Load.P5601317-1_T_07570$P5601317_T_-1-B-1_5 phases=1 bus=X_P5601317_T_07570_SLD_5.2 kV=0.24 xfkva=5.384 pf=0.744 !status=variable mode=4 CVRwatts=0.8 CVRvars=3 class=1 numcust=1 yearly=LoadProfile xfkVA=50
New Load.P5601317-1_T_07570$P5601317_T_-1-C-1_1 phases=1 bus=X_P5601317_T_07570_SLD_1.3 kV=0.24 xfkva=5.327 pf=0.663 !status=variable mode=4 CVRwatts=0.8 CVRvars=3 class=1 numcust=1 yearly=LoadProfile xfkVA=50
New Load.P5601317-1_T_07570$P5601317_T_-1-C-1_2 phases=1 bus=X_P5601317_T_07570_SLD_2.3 kV=0.24 xfkva=5.327 pf=0.663 !status=variable mode=4 CVRwatts=0.8 CVRvars=3 class=1 numcust=1 yearly=LoadProfile xfkVA=50
New Load.P5601317-1_T_07570$P5601317_T_-1-C-1_3 phases=1 bus=X_P5601317_T_07570_SLD_3.3 kV=0.24 xfkva=5.327 pf=0.663 !status=variable mode=4 CVRwatts=0.8 CVRvars=3 class=1 numcust=1 yearly=LoadProfile xfkVA=50
New Load.P5601317-1_T_07570$P5601317_T_-1-C-1_4 phases=1 bus=X_P5601317_T_07570_SLD_4.3 kV=0.24 xfkva=5.327 pf=0.663 !status=variable mode=4 CVRwatts=0.8 CVRvars=3 class=1 numcust=1 yearly=LoadProfile xfkVA=50
New Load.P5601317-1_T_07570$P5601317_T_-1-C-1_5 phases=1 bus=X_P5601317_T_07570_SLD_5.3 kV=0.24 xfkva=5.327 pf=0.663 !status=variable mode=4 CVRwatts=0.8 CVRvars=3 class=1 numcust=1 yearly=LoadProfile xfkVA=50
New Load.4772513E-ABC-1_1 phases=3 bus=X_4772513E_T_07570_SLD_1.1.2.3 kV=0.48 xfkva=34.745 pf=0.666 !status=variable mode=4 CVRwatts=0.8 CVRvars=3 class=1 numcust=1 yearly=LoadProfile xfkVA=225
New Load.4772513E-ABC-1_2 phases=3 bus=X_4772513E_T_07570_SLD_2.1.2.3 kV=0.48 xfkva=34.745 pf=0.666 !status=variable mode=4 CVRwatts=0.8 CVRvars=3 class=1 numcust=1 yearly=LoadProfile xfkVA=225
New Load.4772513E-ABC-1_3 phases=3 bus=X_4772513E_T_07570_SLD_3.1.2.3 kV=0.48 xfkva=34.745 pf=0.666 !status=variable mode=4 CVRwatts=0.8 CVRvars=3 class=1 numcust=1 yearly=LoadProfile xfkVA=225
New Load.4002234E-ABC-1_1 phases=3 bus=X_4002234E_T_07570_SLD_1.1.2.3 kV=0.48 xfkva=34.745 pf=0.666 !status=variable mode=4 CVRwatts=0.8 CVRvars=3 class=1 numcust=1 yearly=LoadProfile xfkVA=75
New Load.4553236E_07570$4553236E_T_0757-1-A-1_1 phases=1 bus=X_4553236E_T_07570_SLD_1.1 kV=0.24 xfkva=1.581 pf=0.64 !status=variable mode=4 CVRwatts=0.8 CVRvars=3 class=1 numcust=1 yearly=LoadProfile xfkVA=3
New Load.4553236E_07570$4553236E_T_0757-1-B-1_1 phases=1 bus=X_4553236E_T_07570_SLD_1.2 kV=0.24 xfkva=1.795 pf=0.744 !status=variable mode=4 CVRwatts=0.8 CVRvars=3 class=1 numcust=1 yearly=LoadProfile xfkVA=3
New Load.4553236E_07570$4553236E_T_0757-1-C-1_1 phases=1 bus=X_4553236E_T_07570_SLD_1.3 kV=0.24 xfkva=1.776 pf=0.663 !status=variable mode=4 CVRwatts=0.8 CVRvars=3 class=1 numcust=1 yearly=LoadProfile xfkVA=3
New Load.4210436E-ABC-1_1 phases=3 bus=X_4210436E_T_07570_SLD_1.1.2.3 kV=0.48 xfkva=4.169 pf=0.666 !status=variable mode=4 CVRwatts=0.8 CVRvars=3 class=1 numcust=1 yearly=LoadProfile xfkVA=45
New Load.4210436E-ABC-1_2 phases=3 bus=X_4210436E_T_07570_SLD_2.1.2.3 kV=0.48 xfkva=4.169 pf=0.666 !status=variable mode=4 CVRwatts=0.8 CVRvars=3 class=1 numcust=1 yearly=LoadProfile xfkVA=45
New Load.4210436E-ABC-1_3 phases=3 bus=X_4210436E_T_07570_SLD_3.1.2.3 kV=0.48 xfkva=4.169 pf=0.666 !status=variable mode=4 CVRwatts=0.8 CVRvars=3 class=1 numcust=1 yearly=LoadProfile xfkVA=45
New Load.4210436E-ABC-1_4 phases=3 bus=X_4210436E_T_07570_SLD_4.1.2.3 kV=0.48 xfkva=4.169 pf=0.666 !status=variable mode=4 CVRwatts=0.8 CVRvars=3 class=1 numcust=1 yearly=LoadProfile xfkVA=45
New Load.4210436E-ABC-1_5 phases=3 bus=X_4210436E_T_07570_SLD_5.1.2.3 kV=0.48 xfkva=4.169 pf=0.666 !status=variable mode=4 CVRwatts=0.8 CVRvars=3 class=1 numcust=1 yearly=LoadProfile xfkVA=45
New Load.936059E-ABC-1_1 phases=3 bus=X_936059E_T_07570_SLD_1.1.2.3 kV=0.48 xfkva=4.633 pf=0.666 !status=variable mode=4 CVRwatts=0.8 CVRvars=3 class=1 numcust=1 yearly=LoadProfile xfkVA=30
New Load.936059E-ABC-1_2 phases=3 bus=X_936059E_T_07570_SLD_2.1.2.3 kV=0.48 xfkva=4.633 pf=0.666 !status=variable mode=4 CVRwatts=0.8 CVRvars=3 class=1 numcust=1 yearly=LoadProfile xfkVA=30
New Load.936059E-ABC-1_3 phases=3 bus=X_936059E_T_07570_SLD_3.1.2.3 kV=0.48 xfkva=4.633 pf=0.666 !status=variable mode=4 CVRwatts=0.8 CVRvars=3 class=1 numcust=1 yearly=LoadProfile xfkVA=30
New Load.4553228E-ABC-1_1 phases=3 bus=X_4553228E_T_07570_SLD_1.1.2.3 kV=0.48 xfkva=3.475 pf=0.666 !status=variable mode=4 CVRwatts=0.8 CVRvars=3 class=1 numcust=1 yearly=LoadProfile xfkVA=15
New Load.4553228E-ABC-1_2 phases=3 bus=X_4553228E_T_07570_SLD_2.1.2.3 kV=0.48 xfkva=3.475 pf=0.666 !status=variable mode=4 CVRwatts=0.8 CVRvars=3 class=1 numcust=1 yearly=LoadProfile xfkVA=15
New Load.2197942E-ABC-1_1 phases=3 bus=X_2197942E_T_07570_SLD_1.1.2.3 kV=0.48 xfkva=4.633 pf=0.666 !status=variable mode=4 CVRwatts=0.8 CVRvars=3 class=1 numcust=1 yearly=LoadProfile xfkVA=10
New Load.4695030E-ABC-1_1 phases=3 bus=X_4695030E_T_07570_SLD_1.1.2.3 kV=0.48 xfkva=34.745 pf=0.666 !status=variable mode=4 CVRwatts=0.8 CVRvars=3 class=1 numcust=1 yearly=LoadProfile xfkVA=75
New Load.4694280E-ABC-1_1 phases=3 bus=X_4694280E_T_07570_SLD_1.1.2.3 kV=0.48 xfkva=34.745 pf=0.666 !status=variable mode=4 CVRwatts=0.8 CVRvars=3 class=1 numcust=1 yearly=LoadProfile xfkVA=75
New Load.1807900E_07570$1807900E_T_0757-1-A-1_1 phases=1 bus=X_1807900E_T_07570_SLD_1.1 kV=0.24 xfkva=3.952 pf=0.64 !status=variable mode=4 CVRwatts=0.8 CVRvars=3 class=1 numcust=1 yearly=LoadProfile xfkVA=8
New Load.1807900E_07570$1807900E_T_0757-1-B-1_1 phases=1 bus=X_1807900E_T_07570_SLD_1.2 kV=0.24 xfkva=4.487 pf=0.744 !status=variable mode=4 CVRwatts=0.8 CVRvars=3 class=1 numcust=1 yearly=LoadProfile xfkVA=8
New Load.1807900E_07570$1807900E_T_0757-1-C-1_1 phases=1 bus=X_1807900E_T_07570_SLD_1.3 kV=0.24 xfkva=4.439 pf=0.663 !status=variable mode=4 CVRwatts=0.8 CVRvars=3 class=1 numcust=1 yearly=LoadProfile xfkVA=8
New Load.1340496E_07570$1340496E_T_0757-1-A-1_1 phases=1 bus=X_1340496E_T_07570_SLD_1.1 kV=0.24 xfkva=3.952 pf=0.64 !status=variable mode=4 CVRwatts=0.8 CVRvars=3 class=1 numcust=1 yearly=LoadProfile xfkVA=8
New Load.1340496E_07570$1340496E_T_0757-1-B-1_1 phases=1 bus=X_1340496E_T_07570_SLD_1.2 kV=0.24 xfkva=4.487 pf=0.744 !status=variable mode=4 CVRwatts=0.8 CVRvars=3 class=1 numcust=1 yearly=LoadProfile xfkVA=8
New Load.1340496E_07570$1340496E_T_0757-1-C-1_1 phases=1 bus=X_1340496E_T_07570_SLD_1.3 kV=0.24 xfkva=4.439 pf=0.663 !status=variable mode=4 CVRwatts=0.8 CVRvars=3 class=1 numcust=1 yearly=LoadProfile xfkVA=8
New Load.1636824E-ABC-1_1 phases=3 bus=X_1636824E_T_07570_SLD_1.1.2.3 kV=0.48 xfkva=3.475 pf=0.666 !status=variable mode=4 CVRwatts=0.8 CVRvars=3 class=1 numcust=1 yearly=LoadProfile xfkVA=15
New Load.1636824E-ABC-1_2 phases=3 bus=X_1636824E_T_07570_SLD_2.1.2.3 kV=0.48 xfkva=3.475 pf=0.666 !status=variable mode=4 CVRwatts=0.8 CVRvars=3 class=1 numcust=1 yearly=LoadProfile xfkVA=15
New Load.1982338E_07570$1982338E_T_0757-1-A-1_1 phases=1 bus=X_1982338E_T_07570_SLD_1.1 kV=0.24 xfkva=1.581 pf=0.64 !status=variable mode=4 CVRwatts=0.8 CVRvars=3 class=1 numcust=1 yearly=LoadProfile xfkVA=3
New Load.1982338E_07570$1982338E_T_0757-1-B-1_1 phases=1 bus=X_1982338E_T_07570_SLD_1.2 kV=0.24 xfkva=1.795 pf=0.744 !status=variable mode=4 CVRwatts=0.8 CVRvars=3 class=1 numcust=1 yearly=LoadProfile xfkVA=3
New Load.1982338E_07570$1982338E_T_0757-1-C-1_1 phases=1 bus=X_1982338E_T_07570_SLD_1.3 kV=0.24 xfkva=1.776 pf=0.663 !status=variable mode=4 CVRwatts=0.8 CVRvars=3 class=1 numcust=1 yearly=LoadProfile xfkVA=3
New Load.4362819E-ABC-1_1 phases=3 bus=X_4362819E_T_07570_SLD_1.1.2.3 kV=0.48 xfkva=4.054 pf=0.666 !status=variable mode=4 CVRwatts=0.8 CVRvars=3 class=1 numcust=1 yearly=LoadProfile xfkVA=35
New Load.4362819E-ABC-1_2 phases=3 bus=X_4362819E_T_07570_SLD_2.1.2.3 kV=0.48 xfkva=4.054 pf=0.666 !status=variable mode=4 CVRwatts=0.8 CVRvars=3 class=1 numcust=1 yearly=LoadProfile xfkVA=35
New Load.4362819E-ABC-1_3 phases=3 bus=X_4362819E_T_07570_SLD_3.1.2.3 kV=0.48 xfkva=4.054 pf=0.666 !status=variable mode=4 CVRwatts=0.8 CVRvars=3 class=1 numcust=1 yearly=LoadProfile xfkVA=35
New Load.4362819E-ABC-1_4 phases=3 bus=X_4362819E_T_07570_SLD_4.1.2.3 kV=0.48 xfkva=4.054 pf=0.666 !status=variable mode=4 CVRwatts=0.8 CVRvars=3 class=1 numcust=1 yearly=LoadProfile xfkVA=35
New Load.4505903E_07570$4505903E_T_0757-1-A-1_1 phases=1 bus=X_4505903E_T_07570_SLD_1.1 kV=0.24 xfkva=2.371 pf=0.64 !status=variable mode=4 CVRwatts=0.8 CVRvars=3 class=1 numcust=1 yearly=LoadProfile xfkVA=5
New Load.4505903E_07570$4505903E_T_0757-1-B-1_1 phases=1 bus=X_4505903E_T_07570_SLD_1.2 kV=0.24 xfkva=2.692 pf=0.744 !status=variable mode=4 CVRwatts=0.8 CVRvars=3 class=1 numcust=1 yearly=LoadProfile xfkVA=5
New Load.4505903E_07570$4505903E_T_0757-1-C-1_1 phases=1 bus=X_4505903E_T_07570_SLD_1.3 kV=0.24 xfkva=2.663 pf=0.663 !status=variable mode=4 CVRwatts=0.8 CVRvars=3 class=1 numcust=1 yearly=LoadProfile xfkVA=5
New Load.4368659E-ABC-1_1 phases=3 bus=X_4368659E_T_07570_SLD_1.1.2.3 kV=0.48 xfkva=34.745 pf=0.666 !status=variable mode=4 CVRwatts=0.8 CVRvars=3 class=1 numcust=1 yearly=LoadProfile xfkVA=75
New Load.4180602E-ABC-1_1 phases=3 bus=X_4180602E_T_07570_SLD_1.1.2.3 kV=0.48 xfkva=4.633 pf=0.666 !status=variable mode=4 CVRwatts=0.8 CVRvars=3 class=1 numcust=1 yearly=LoadProfile xfkVA=20
New Load.4180602E-ABC-1_2 phases=3 bus=X_4180602E_T_07570_SLD_2.1.2.3 kV=0.48 xfkva=4.633 pf=0.666 !status=variable mode=4 CVRwatts=0.8 CVRvars=3 class=1 numcust=1 yearly=LoadProfile xfkVA=20
New Load.1763646E-ABC-1_1 phases=3 bus=X_1763646E_T_07570_SLD_1.1.2.3 kV=0.48 xfkva=2.316 pf=0.666 !status=variable mode=4 CVRwatts=0.8 CVRvars=3 class=1 numcust=1 yearly=LoadProfile xfkVA=5
New Load.4477501E-ABC-1_1 phases=3 bus=X_4477501E_T_07570_SLD_1.1.2.3 kV=0.48 xfkva=3.861 pf=0.666 !status=variable mode=4 CVRwatts=0.8 CVRvars=3 class=1 numcust=1 yearly=LoadProfile xfkVA=25
New Load.4477501E-ABC-1_2 phases=3 bus=X_4477501E_T_07570_SLD_2.1.2.3 kV=0.48 xfkva=3.861 pf=0.666 !status=variable mode=4 CVRwatts=0.8 CVRvars=3 class=1 numcust=1 yearly=LoadProfile xfkVA=25
New Load.4477501E-ABC-1_3 phases=3 bus=X_4477501E_T_07570_SLD_3.1.2.3 kV=0.48 xfkva=3.861 pf=0.666 !status=variable mode=4 CVRwatts=0.8 CVRvars=3 class=1 numcust=1 yearly=LoadProfile xfkVA=25
New Load.4699973E_07570$4699973E_T_0757-1-A-1_1 phases=1 bus=X_4699973E_T_07570_SLD_1.1 kV=0.24 xfkva=2.964 pf=0.64 !status=variable mode=4 CVRwatts=0.8 CVRvars=3 class=1 numcust=1 yearly=LoadProfile xfkVA=12
New Load.4699973E_07570$4699973E_T_0757-1-A-1_2 phases=1 bus=X_4699973E_T_07570_SLD_2.1 kV=0.24 xfkva=2.964 pf=0.64 !status=variable mode=4 CVRwatts=0.8 CVRvars=3 class=1 numcust=1 yearly=LoadProfile xfkVA=12
New Load.4699973E_07570$4699973E_T_0757-1-B-1_1 phases=1 bus=X_4699973E_T_07570_SLD_1.2 kV=0.24 xfkva=3.365 pf=0.744 !status=variable mode=4 CVRwatts=0.8 CVRvars=3 class=1 numcust=1 yearly=LoadProfile xfkVA=12
New Load.4699973E_07570$4699973E_T_0757-1-B-1_2 phases=1 bus=X_4699973E_T_07570_SLD_2.2 kV=0.24 xfkva=3.365 pf=0.744 !status=variable mode=4 CVRwatts=0.8 CVRvars=3 class=1 numcust=1 yearly=LoadProfile xfkVA=12
New Load.4699973E_07570$4699973E_T_0757-1-C-1_1 phases=1 bus=X_4699973E_T_07570_SLD_1.3 kV=0.24 xfkva=3.329 pf=0.663 !status=variable mode=4 CVRwatts=0.8 CVRvars=3 class=1 numcust=1 yearly=LoadProfile xfkVA=12
New Load.4699973E_07570$4699973E_T_0757-1-C-1_2 phases=1 bus=X_4699973E_T_07570_SLD_2.3 kV=0.24 xfkva=3.329 pf=0.663 !status=variable mode=4 CVRwatts=0.8 CVRvars=3 class=1 numcust=1 yearly=LoadProfile xfkVA=12
New Load.4540721E-ABC-1_1 phases=3 bus=X_4540721E_T_07570_SLD_1.1.2.3 kV=0.48 xfkva=40.536 pf=0.666 !status=variable mode=4 CVRwatts=0.8 CVRvars=3 class=1 numcust=1 yearly=LoadProfile xfkVA=88
New Load.P5403116-ABC-1_1 phases=3 bus=X_P5403116_T_07570_SLD_1.1.2.3 kV=0.48 xfkva=34.745 pf=0.666 !status=variable mode=4 CVRwatts=0.8 CVRvars=3 class=1 numcust=1 yearly=LoadProfile xfkVA=150
New Load.P5403116-ABC-1_2 phases=3 bus=X_P5403116_T_07570_SLD_2.1.2.3 kV=0.48 xfkva=34.745 pf=0.666 !status=variable mode=4 CVRwatts=0.8 CVRvars=3 class=1 numcust=1 yearly=LoadProfile xfkVA=150
New Load.1982073E_07570$1982073E_T_0757-1-A-1_1 phases=1 bus=X_1982073E_T_07570_SLD_1.1 kV=0.24 xfkva=2.371 pf=0.64 !status=variable mode=4 CVRwatts=0.8 CVRvars=3 class=1 numcust=1 yearly=LoadProfile xfkVA=5
New Load.1982073E_07570$1982073E_T_0757-1-B-1_1 phases=1 bus=X_1982073E_T_07570_SLD_1.2 kV=0.24 xfkva=2.692 pf=0.744 !status=variable mode=4 CVRwatts=0.8 CVRvars=3 class=1 numcust=1 yearly=LoadProfile xfkVA=5
New Load.1982073E_07570$1982073E_T_0757-1-C-1_1 phases=1 bus=X_1982073E_T_07570_SLD_1.3 kV=0.24 xfkva=2.663 pf=0.663 !status=variable mode=4 CVRwatts=0.8 CVRvars=3 class=1 numcust=1 yearly=LoadProfile xfkVA=5
New Load.4099194E-ABC-1_1 phases=3 bus=X_4099194E_T_07570_SLD_1.1.2.3 kV=0.48 xfkva=34.745 pf=0.666 !status=variable mode=4 CVRwatts=0.8 CVRvars=3 class=1 numcust=1 yearly=LoadProfile xfkVA=75
New Load.4658388E-ABC-1_1 phases=3 bus=X_4658388E_T_07570_SLD_1.1.2.3 kV=0.48 xfkva=26.059 pf=0.666 !status=variable mode=4 CVRwatts=0.8 CVRvars=3 class=1 numcust=1 yearly=LoadProfile xfkVA=112
New Load.4658388E-ABC-1_2 phases=3 bus=X_4658388E_T_07570_SLD_2.1.2.3 kV=0.48 xfkva=26.059 pf=0.666 !status=variable mode=4 CVRwatts=0.8 CVRvars=3 class=1 numcust=1 yearly=LoadProfile xfkVA=112
New Load.4477301E_07570$4477301E_T_0757-1-A-1_1 phases=1 bus=X_4477301E_T_07570_SLD_1.1 kV=0.24 xfkva=3.952 pf=0.64 !status=variable mode=4 CVRwatts=0.8 CVRvars=3 class=1 numcust=1 yearly=LoadProfile xfkVA=8
New Load.4477301E_07570$4477301E_T_0757-1-B-1_1 phases=1 bus=X_4477301E_T_07570_SLD_1.2 kV=0.24 xfkva=4.487 pf=0.744 !status=variable mode=4 CVRwatts=0.8 CVRvars=3 class=1 numcust=1 yearly=LoadProfile xfkVA=8
New Load.4477301E_07570$4477301E_T_0757-1-C-1_1 phases=1 bus=X_4477301E_T_07570_SLD_1.3 kV=0.24 xfkva=4.439 pf=0.663 !status=variable mode=4 CVRwatts=0.8 CVRvars=3 class=1 numcust=1 yearly=LoadProfile xfkVA=8
New Load.4780491E-ABC-1_1 phases=3 bus=X_4780491E_T_07570_SLD_1.1.2.3 kV=0.48 xfkva=34.745 pf=0.666 !status=variable mode=4 CVRwatts=0.8 CVRvars=3 class=1 numcust=1 yearly=LoadProfile xfkVA=75
New Load.458811E_07570$458811E_T_07570-1-A-1_1 phases=1 bus=X_458811E_T_07570_SLD_1.1 kV=0.24 xfkva=1.581 pf=0.64 !status=variable mode=4 CVRwatts=0.8 CVRvars=3 class=1 numcust=1 yearly=LoadProfile xfkVA=3
New Load.458811E_07570$458811E_T_07570-1-B-1_1 phases=1 bus=X_458811E_T_07570_SLD_1.2 kV=0.24 xfkva=1.795 pf=0.744 !status=variable mode=4 CVRwatts=0.8 CVRvars=3 class=1 numcust=1 yearly=LoadProfile xfkVA=3
New Load.458811E_07570$458811E_T_07570-1-C-1_1 phases=1 bus=X_458811E_T_07570_SLD_1.3 kV=0.24 xfkva=1.776 pf=0.663 !status=variable mode=4 CVRwatts=0.8 CVRvars=3 class=1 numcust=1 yearly=LoadProfile xfkVA=3
New Load.4552982E_07570$4552982E_T_0757-1-A-1_1 phases=1 bus=X_4552982E_T_07570_SLD_1.1 kV=0.24 xfkva=1.581 pf=0.64 !status=variable mode=4 CVRwatts=0.8 CVRvars=3 class=1 numcust=1 yearly=LoadProfile xfkVA=3
New Load.4552982E_07570$4552982E_T_0757-1-B-1_1 phases=1 bus=X_4552982E_T_07570_SLD_1.2 kV=0.24 xfkva=1.795 pf=0.744 !status=variable mode=4 CVRwatts=0.8 CVRvars=3 class=1 numcust=1 yearly=LoadProfile xfkVA=3
New Load.4552982E_07570$4552982E_T_0757-1-C-1_1 phases=1 bus=X_4552982E_T_07570_SLD_1.3 kV=0.24 xfkva=1.776 pf=0.663 !status=variable mode=4 CVRwatts=0.8 CVRvars=3 class=1 numcust=1 yearly=LoadProfile xfkVA=3
New Load.766011E-ABC-1_1 phases=3 bus=X_766011E_T_07570_SLD_1.1.2.3 kV=0.48 xfkva=4.633 pf=0.666 !status=variable mode=4 CVRwatts=0.8 CVRvars=3 class=1 numcust=1 yearly=LoadProfile xfkVA=10
New Load.2093143E_07570$2093143E_T_0757-1-A-1_1 phases=1 bus=X_2093143E_T_07570_SLD_1.1 kV=0.24 xfkva=1.581 pf=0.64 !status=variable mode=4 CVRwatts=0.8 CVRvars=3 class=1 numcust=1 yearly=LoadProfile xfkVA=3
New Load.2093143E_07570$2093143E_T_0757-1-B-1_1 phases=1 bus=X_2093143E_T_07570_SLD_1.2 kV=0.24 xfkva=1.795 pf=0.744 !status=variable mode=4 CVRwatts=0.8 CVRvars=3 class=1 numcust=1 yearly=LoadProfile xfkVA=3
New Load.2093143E_07570$2093143E_T_0757-1-C-1_1 phases=1 bus=X_2093143E_T_07570_SLD_1.3 kV=0.24 xfkva=1.776 pf=0.663 !status=variable mode=4 CVRwatts=0.8 CVRvars=3 class=1 numcust=1 yearly=LoadProfile xfkVA=3
New Load.4540498E_07570$4540498E_T_0757-1-A-1_1 phases=1 bus=X_4540498E_T_07570_SLD_1.1 kV=0.24 xfkva=3.952 pf=0.64 !status=variable mode=4 CVRwatts=0.8 CVRvars=3 class=1 numcust=1 yearly=LoadProfile xfkVA=8
New Load.4540498E_07570$4540498E_T_0757-1-B-1_1 phases=1 bus=X_4540498E_T_07570_SLD_1.2 kV=0.24 xfkva=4.487 pf=0.744 !status=variable mode=4 CVRwatts=0.8 CVRvars=3 class=1 numcust=1 yearly=LoadProfile xfkVA=8
New Load.4540498E_07570$4540498E_T_0757-1-C-1_1 phases=1 bus=X_4540498E_T_07570_SLD_1.3 kV=0.24 xfkva=4.439 pf=0.663 !status=variable mode=4 CVRwatts=0.8 CVRvars=3 class=1 numcust=1 yearly=LoadProfile xfkVA=8
New Load.4368160E-ABC-1_1 phases=3 bus=X_4368160E_T_07570_SLD_1.1.2.3 kV=0.48 xfkva=4.169 pf=0.666 !status=variable mode=4 CVRwatts=0.8 CVRvars=3 class=1 numcust=1 yearly=LoadProfile xfkVA=45
New Load.4368160E-ABC-1_2 phases=3 bus=X_4368160E_T_07570_SLD_2.1.2.3 kV=0.48 xfkva=4.169 pf=0.666 !status=variable mode=4 CVRwatts=0.8 CVRvars=3 class=1 numcust=1 yearly=LoadProfile xfkVA=45
New Load.4368160E-ABC-1_3 phases=3 bus=X_4368160E_T_07570_SLD_3.1.2.3 kV=0.48 xfkva=4.169 pf=0.666 !status=variable mode=4 CVRwatts=0.8 CVRvars=3 class=1 numcust=1 yearly=LoadProfile xfkVA=45
New Load.4368160E-ABC-1_4 phases=3 bus=X_4368160E_T_07570_SLD_4.1.2.3 kV=0.48 xfkva=4.169 pf=0.666 !status=variable mode=4 CVRwatts=0.8 CVRvars=3 class=1 numcust=1 yearly=LoadProfile xfkVA=45
New Load.4368160E-ABC-1_5 phases=3 bus=X_4368160E_T_07570_SLD_5.1.2.3 kV=0.48 xfkva=4.169 pf=0.666 !status=variable mode=4 CVRwatts=0.8 CVRvars=3 class=1 numcust=1 yearly=LoadProfile xfkVA=45
New Load.837633E-ABC-1_1 phases=3 bus=X_837633E_T_07570_SLD_1.1.2.3 kV=0.48 xfkva=3.861 pf=0.666 !status=variable mode=4 CVRwatts=0.8 CVRvars=3 class=1 numcust=1 yearly=LoadProfile xfkVA=25
New Load.837633E-ABC-1_2 phases=3 bus=X_837633E_T_07570_SLD_2.1.2.3 kV=0.48 xfkva=3.861 pf=0.666 !status=variable mode=4 CVRwatts=0.8 CVRvars=3 class=1 numcust=1 yearly=LoadProfile xfkVA=25
New Load.837633E-ABC-1_3 phases=3 bus=X_837633E_T_07570_SLD_3.1.2.3 kV=0.48 xfkva=3.861 pf=0.666 !status=variable mode=4 CVRwatts=0.8 CVRvars=3 class=1 numcust=1 yearly=LoadProfile xfkVA=25
New Load.X15001E-ABC-1_1 phases=3 bus=X_X15001E_T_07570_SLD_1.1.2.3 kV=0.48 xfkva=3.861 pf=0.666 !status=variable mode=4 CVRwatts=0.8 CVRvars=3 class=1 numcust=1 yearly=LoadProfile xfkVA=25
New Load.X15001E-ABC-1_2 phases=3 bus=X_X15001E_T_07570_SLD_2.1.2.3 kV=0.48 xfkva=3.861 pf=0.666 !status=variable mode=4 CVRwatts=0.8 CVRvars=3 class=1 numcust=1 yearly=LoadProfile xfkVA=25
New Load.X15001E-ABC-1_3 phases=3 bus=X_X15001E_T_07570_SLD_3.1.2.3 kV=0.48 xfkva=3.861 pf=0.666 !status=variable mode=4 CVRwatts=0.8 CVRvars=3 class=1 numcust=1 yearly=LoadProfile xfkVA=25
New Load.2286962E-ABC-1_1 phases=3 bus=X_2286962E_T_07570_SLD_1.1.2.3 kV=0.48 xfkva=3.475 pf=0.666 !status=variable mode=4 CVRwatts=0.8 CVRvars=3 class=1 numcust=1 yearly=LoadProfile xfkVA=15
New Load.2286962E-ABC-1_2 phases=3 bus=X_2286962E_T_07570_SLD_2.1.2.3 kV=0.48 xfkva=3.475 pf=0.666 !status=variable mode=4 CVRwatts=0.8 CVRvars=3 class=1 numcust=1 yearly=LoadProfile xfkVA=15
New Load.744583E-ABC-1_1 phases=3 bus=X_744583E_T_07570_SLD_1.1.2.3 kV=0.48 xfkva=3.861 pf=0.666 !status=variable mode=4 CVRwatts=0.8 CVRvars=3 class=1 numcust=1 yearly=LoadProfile xfkVA=25
New Load.744583E-ABC-1_2 phases=3 bus=X_744583E_T_07570_SLD_2.1.2.3 kV=0.48 xfkva=3.861 pf=0.666 !status=variable mode=4 CVRwatts=0.8 CVRvars=3 class=1 numcust=1 yearly=LoadProfile xfkVA=25
New Load.744583E-ABC-1_3 phases=3 bus=X_744583E_T_07570_SLD_3.1.2.3 kV=0.48 xfkva=3.861 pf=0.666 !status=variable mode=4 CVRwatts=0.8 CVRvars=3 class=1 numcust=1 yearly=LoadProfile xfkVA=25
New Load.4659046E_07570$4659046E_T_0757-1-A-1_1 phases=1 bus=X_4659046E_T_07570_SLD_1.1 kV=0.24 xfkva=2.371 pf=0.64 !status=variable mode=4 CVRwatts=0.8 CVRvars=3 class=1 numcust=1 yearly=LoadProfile xfkVA=5
New Load.4661652E_07570$4661652E_T_0757-1-A-1_1 phases=1 bus=X_4661652E_T_07570_SLD_1.1 kV=0.24 xfkva=1.581 pf=0.64 !status=variable mode=4 CVRwatts=0.8 CVRvars=3 class=1 numcust=1 yearly=LoadProfile xfkVA=3
New Load.4661652E_07570$4661652E_T_0757-1-B-1_1 phases=1 bus=X_4661652E_T_07570_SLD_1.2 kV=0.24 xfkva=1.795 pf=0.744 !status=variable mode=4 CVRwatts=0.8 CVRvars=3 class=1 numcust=1 yearly=LoadProfile xfkVA=3
New Load.4661652E_07570$4661652E_T_0757-1-C-1_1 phases=1 bus=X_4661652E_T_07570_SLD_1.3 kV=0.24 xfkva=1.776 pf=0.663 !status=variable mode=4 CVRwatts=0.8 CVRvars=3 class=1 numcust=1 yearly=LoadProfile xfkVA=3
New Load.4001837E-ABC-1_1 phases=3 bus=X_4001837E_T_07570_SLD_1.1.2.3 kV=0.48 xfkva=3.475 pf=0.666 !status=variable mode=4 CVRwatts=0.8 CVRvars=3 class=1 numcust=1 yearly=LoadProfile xfkVA=15
New Load.4001837E-ABC-1_2 phases=3 bus=X_4001837E_T_07570_SLD_2.1.2.3 kV=0.48 xfkva=3.475 pf=0.666 !status=variable mode=4 CVRwatts=0.8 CVRvars=3 class=1 numcust=1 yearly=LoadProfile xfkVA=15
New Load.4289382E-ABC-1_1 phases=3 bus=X_4289382E_T_07570_SLD_1.1.2.3 kV=0.48 xfkva=3.475 pf=0.666 !status=variable mode=4 CVRwatts=0.8 CVRvars=3 class=1 numcust=1 yearly=LoadProfile xfkVA=15
New Load.4289382E-ABC-1_2 phases=3 bus=X_4289382E_T_07570_SLD_2.1.2.3 kV=0.48 xfkva=3.475 pf=0.666 !status=variable mode=4 CVRwatts=0.8 CVRvars=3 class=1 numcust=1 yearly=LoadProfile xfkVA=15
New Load.P5476178-1_T_07570$P5476178_T_-1-A-1_1 phases=1 bus=X_P5476178_T_07570_SLD_1.1 kV=0.24 xfkva=3.952 pf=0.64 !status=variable mode=4 CVRwatts=0.8 CVRvars=3 class=1 numcust=1 yearly=LoadProfile xfkVA=25
New Load.P5476178-1_T_07570$P5476178_T_-1-A-1_2 phases=1 bus=X_P5476178_T_07570_SLD_2.1 kV=0.24 xfkva=3.952 pf=0.64 !status=variable mode=4 CVRwatts=0.8 CVRvars=3 class=1 numcust=1 yearly=LoadProfile xfkVA=25
New Load.P5476178-1_T_07570$P5476178_T_-1-A-1_3 phases=1 bus=X_P5476178_T_07570_SLD_3.1 kV=0.24 xfkva=3.952 pf=0.64 !status=variable mode=4 CVRwatts=0.8 CVRvars=3 class=1 numcust=1 yearly=LoadProfile xfkVA=25
New Load.P5476178-1_T_07570$P5476178_T_-1-B-1_1 phases=1 bus=X_P5476178_T_07570_SLD_1.2 kV=0.24 xfkva=4.487 pf=0.744 !status=variable mode=4 CVRwatts=0.8 CVRvars=3 class=1 numcust=1 yearly=LoadProfile xfkVA=25
New Load.P5476178-1_T_07570$P5476178_T_-1-B-1_2 phases=1 bus=X_P5476178_T_07570_SLD_2.2 kV=0.24 xfkva=4.487 pf=0.744 !status=variable mode=4 CVRwatts=0.8 CVRvars=3 class=1 numcust=1 yearly=LoadProfile xfkVA=25
New Load.P5476178-1_T_07570$P5476178_T_-1-B-1_3 phases=1 bus=X_P5476178_T_07570_SLD_3.2 kV=0.24 xfkva=4.487 pf=0.744 !status=variable mode=4 CVRwatts=0.8 CVRvars=3 class=1 numcust=1 yearly=LoadProfile xfkVA=25
New Load.P5476178-1_T_07570$P5476178_T_-1-C-1_1 phases=1 bus=X_P5476178_T_07570_SLD_1.3 kV=0.24 xfkva=4.439 pf=0.663 !status=variable mode=4 CVRwatts=0.8 CVRvars=3 class=1 numcust=1 yearly=LoadProfile xfkVA=25
New Load.P5476178-1_T_07570$P5476178_T_-1-C-1_2 phases=1 bus=X_P5476178_T_07570_SLD_2.3 kV=0.24 xfkva=4.439 pf=0.663 !status=variable mode=4 CVRwatts=0.8 CVRvars=3 class=1 numcust=1 yearly=LoadProfile xfkVA=25
New Load.P5476178-1_T_07570$P5476178_T_-1-C-1_3 phases=1 bus=X_P5476178_T_07570_SLD_3.3 kV=0.24 xfkva=4.439 pf=0.663 !status=variable mode=4 CVRwatts=0.8 CVRvars=3 class=1 numcust=1 yearly=LoadProfile xfkVA=25
New Load.4632242E-ABC-1_1 phases=3 bus=X_4632242E_T_07570_SLD_1.1.2.3 kV=0.48 xfkva=4.343 pf=0.666 !status=variable mode=4 CVRwatts=0.8 CVRvars=3 class=1 numcust=1 yearly=LoadProfile xfkVA=38
New Load.4632242E-ABC-1_2 phases=3 bus=X_4632242E_T_07570_SLD_2.1.2.3 kV=0.48 xfkva=4.343 pf=0.666 !status=variable mode=4 CVRwatts=0.8 CVRvars=3 class=1 numcust=1 yearly=LoadProfile xfkVA=38
New Load.4632242E-ABC-1_3 phases=3 bus=X_4632242E_T_07570_SLD_3.1.2.3 kV=0.48 xfkva=4.343 pf=0.666 !status=variable mode=4 CVRwatts=0.8 CVRvars=3 class=1 numcust=1 yearly=LoadProfile xfkVA=38
New Load.4632242E-ABC-1_4 phases=3 bus=X_4632242E_T_07570_SLD_4.1.2.3 kV=0.48 xfkva=4.343 pf=0.666 !status=variable mode=4 CVRwatts=0.8 CVRvars=3 class=1 numcust=1 yearly=LoadProfile xfkVA=38
New Load.4368670E-ABC-1_1 phases=3 bus=X_4368670E_T_07570_SLD_1.1.2.3 kV=0.48 xfkva=4.169 pf=0.666 !status=variable mode=4 CVRwatts=0.8 CVRvars=3 class=1 numcust=1 yearly=LoadProfile xfkVA=45
New Load.4368670E-ABC-1_2 phases=3 bus=X_4368670E_T_07570_SLD_2.1.2.3 kV=0.48 xfkva=4.169 pf=0.666 !status=variable mode=4 CVRwatts=0.8 CVRvars=3 class=1 numcust=1 yearly=LoadProfile xfkVA=45
New Load.4368670E-ABC-1_3 phases=3 bus=X_4368670E_T_07570_SLD_3.1.2.3 kV=0.48 xfkva=4.169 pf=0.666 !status=variable mode=4 CVRwatts=0.8 CVRvars=3 class=1 numcust=1 yearly=LoadProfile xfkVA=45
New Load.4368670E-ABC-1_4 phases=3 bus=X_4368670E_T_07570_SLD_4.1.2.3 kV=0.48 xfkva=4.169 pf=0.666 !status=variable mode=4 CVRwatts=0.8 CVRvars=3 class=1 numcust=1 yearly=LoadProfile xfkVA=45
New Load.4368670E-ABC-1_5 phases=3 bus=X_4368670E_T_07570_SLD_5.1.2.3 kV=0.48 xfkva=4.169 pf=0.666 !status=variable mode=4 CVRwatts=0.8 CVRvars=3 class=1 numcust=1 yearly=LoadProfile xfkVA=45
New Load.4368668E-ABC-1_1 phases=3 bus=X_4368668E_T_07570_SLD_1.1.2.3 kV=0.48 xfkva=3.861 pf=0.666 !status=variable mode=4 CVRwatts=0.8 CVRvars=3 class=1 numcust=1 yearly=LoadProfile xfkVA=25
New Load.4368668E-ABC-1_2 phases=3 bus=X_4368668E_T_07570_SLD_2.1.2.3 kV=0.48 xfkva=3.861 pf=0.666 !status=variable mode=4 CVRwatts=0.8 CVRvars=3 class=1 numcust=1 yearly=LoadProfile xfkVA=25
New Load.4368668E-ABC-1_3 phases=3 bus=X_4368668E_T_07570_SLD_3.1.2.3 kV=0.48 xfkva=3.861 pf=0.666 !status=variable mode=4 CVRwatts=0.8 CVRvars=3 class=1 numcust=1 yearly=LoadProfile xfkVA=25
New Load.4661656E_07570$4661656E_T_0757-1-A-1_1 phases=1 bus=X_4661656E_T_07570_SLD_1.1 kV=0.24 xfkva=3.952 pf=0.64 !status=variable mode=4 CVRwatts=0.8 CVRvars=3 class=1 numcust=1 yearly=LoadProfile xfkVA=25
New Load.4661656E_07570$4661656E_T_0757-1-A-1_2 phases=1 bus=X_4661656E_T_07570_SLD_2.1 kV=0.24 xfkva=3.952 pf=0.64 !status=variable mode=4 CVRwatts=0.8 CVRvars=3 class=1 numcust=1 yearly=LoadProfile xfkVA=25
New Load.4661656E_07570$4661656E_T_0757-1-A-1_3 phases=1 bus=X_4661656E_T_07570_SLD_3.1 kV=0.24 xfkva=3.952 pf=0.64 !status=variable mode=4 CVRwatts=0.8 CVRvars=3 class=1 numcust=1 yearly=LoadProfile xfkVA=25
New Load.4661656E_07570$4661656E_T_0757-1-B-1_1 phases=1 bus=X_4661656E_T_07570_SLD_1.2 kV=0.24 xfkva=4.487 pf=0.744 !status=variable mode=4 CVRwatts=0.8 CVRvars=3 class=1 numcust=1 yearly=LoadProfile xfkVA=25
New Load.4661656E_07570$4661656E_T_0757-1-B-1_2 phases=1 bus=X_4661656E_T_07570_SLD_2.2 kV=0.24 xfkva=4.487 pf=0.744 !status=variable mode=4 CVRwatts=0.8 CVRvars=3 class=1 numcust=1 yearly=LoadProfile xfkVA=25
New Load.4661656E_07570$4661656E_T_0757-1-B-1_3 phases=1 bus=X_4661656E_T_07570_SLD_3.2 kV=0.24 xfkva=4.487 pf=0.744 !status=variable mode=4 CVRwatts=0.8 CVRvars=3 class=1 numcust=1 yearly=LoadProfile xfkVA=25
New Load.4661656E_07570$4661656E_T_0757-1-C-1_1 phases=1 bus=X_4661656E_T_07570_SLD_1.3 kV=0.24 xfkva=4.439 pf=0.663 !status=variable mode=4 CVRwatts=0.8 CVRvars=3 class=1 numcust=1 yearly=LoadProfile xfkVA=25
New Load.4661656E_07570$4661656E_T_0757-1-C-1_2 phases=1 bus=X_4661656E_T_07570_SLD_2.3 kV=0.24 xfkva=4.439 pf=0.663 !status=variable mode=4 CVRwatts=0.8 CVRvars=3 class=1 numcust=1 yearly=LoadProfile xfkVA=25
New Load.4661656E_07570$4661656E_T_0757-1-C-1_3 phases=1 bus=X_4661656E_T_07570_SLD_3.3 kV=0.24 xfkva=4.439 pf=0.663 !status=variable mode=4 CVRwatts=0.8 CVRvars=3 class=1 numcust=1 yearly=LoadProfile xfkVA=25
New Load.1807861E-ABC-1_1 phases=3 bus=X_1807861E_T_07570_SLD_1.1.2.3 kV=0.48 xfkva=3.861 pf=0.666 !status=variable mode=4 CVRwatts=0.8 CVRvars=3 class=1 numcust=1 yearly=LoadProfile xfkVA=25
New Load.1807861E-ABC-1_2 phases=3 bus=X_1807861E_T_07570_SLD_2.1.2.3 kV=0.48 xfkva=3.861 pf=0.666 !status=variable mode=4 CVRwatts=0.8 CVRvars=3 class=1 numcust=1 yearly=LoadProfile xfkVA=25
New Load.1807861E-ABC-1_3 phases=3 bus=X_1807861E_T_07570_SLD_3.1.2.3 kV=0.48 xfkva=3.861 pf=0.666 !status=variable mode=4 CVRwatts=0.8 CVRvars=3 class=1 numcust=1 yearly=LoadProfile xfkVA=25
New Load.P5393566-ABC-1_1 phases=3 bus=X_P5393566_T_07570_SLD_1.1.2.3 kV=0.48 xfkva=3.861 pf=0.666 !status=variable mode=4 CVRwatts=0.8 CVRvars=3 class=1 numcust=1 yearly=LoadProfile xfkVA=25
New Load.P5393566-ABC-1_2 phases=3 bus=X_P5393566_T_07570_SLD_2.1.2.3 kV=0.48 xfkva=3.861 pf=0.666 !status=variable mode=4 CVRwatts=0.8 CVRvars=3 class=1 numcust=1 yearly=LoadProfile xfkVA=25
New Load.P5393566-ABC-1_3 phases=3 bus=X_P5393566_T_07570_SLD_3.1.2.3 kV=0.48 xfkva=3.861 pf=0.666 !status=variable mode=4 CVRwatts=0.8 CVRvars=3 class=1 numcust=1 yearly=LoadProfile xfkVA=25
New Load.1254567E-ABC-1_1 phases=3 bus=X_1254567E_T_07570_SLD_1.1.2.3 kV=0.48 xfkva=4.633 pf=0.666 !status=variable mode=4 CVRwatts=0.8 CVRvars=3 class=1 numcust=1 yearly=LoadProfile xfkVA=10
...
